Version 4
SHEET 1 2676 1408
WIRE 1456 160 1408 160
WIRE 1584 160 1520 160
WIRE 1408 224 1408 160
WIRE 1408 224 1360 224
WIRE 1584 224 1584 160
WIRE 1632 224 1584 224
WIRE 1408 272 1408 224
WIRE 1456 272 1408 272
WIRE 1584 272 1584 224
WIRE 1584 272 1536 272
WIRE 2016 272 2016 224
WIRE 1360 304 1360 224
WIRE 2016 400 2016 352
WIRE 1504 432 1504 400
WIRE 208 448 144 448
WIRE 336 448 288 448
WIRE 512 448 416 448
WIRE 624 448 576 448
WIRE 864 448 704 448
WIRE 1104 448 864 448
WIRE 1312 448 1104 448
WIRE 1360 448 1360 384
WIRE 1360 448 1312 448
WIRE 1472 448 1360 448
WIRE 1632 464 1632 224
WIRE 1632 464 1536 464
WIRE 1712 464 1632 464
WIRE 1472 480 1440 480
WIRE 704 496 704 448
WIRE 864 496 864 448
WIRE 1312 512 1312 448
WIRE 2016 512 2016 480
WIRE 1440 544 1440 480
WIRE 1504 544 1504 496
WIRE 1504 544 1440 544
WIRE 624 608 624 448
WIRE 704 608 704 560
WIRE 864 608 864 576
WIRE 1312 624 1312 576
WIRE 1440 624 1440 544
WIRE 2016 688 2016 640
WIRE 1456 720 1408 720
WIRE 1584 720 1520 720
WIRE 1408 784 1408 720
WIRE 1408 784 1360 784
WIRE 1584 784 1584 720
WIRE 1712 784 1584 784
WIRE 2016 800 2016 768
WIRE 1408 832 1408 784
WIRE 1456 832 1408 832
WIRE 1584 832 1584 784
WIRE 1584 832 1536 832
WIRE 1360 864 1360 784
WIRE 2016 944 2016 912
WIRE 2176 944 2176 912
WIRE 1504 960 1504 928
WIRE 864 1008 704 1008
WIRE 1088 1008 864 1008
WIRE 1312 1008 1088 1008
WIRE 1360 1008 1360 944
WIRE 1360 1008 1312 1008
WIRE 1472 1008 1360 1008
WIRE 1712 1040 1712 784
WIRE 1712 1040 1616 1040
WIRE 1792 1040 1712 1040
WIRE 704 1056 704 1008
WIRE 864 1056 864 1008
WIRE 2016 1056 2016 1024
WIRE 2016 1056 1952 1056
WIRE 2176 1056 2176 1024
WIRE 2176 1056 2016 1056
WIRE 1312 1072 1312 1008
WIRE 1472 1072 1440 1072
WIRE 1952 1072 1952 1056
WIRE 2016 1072 2016 1056
WIRE 1504 1152 1504 1120
WIRE 1552 1152 1552 1120
WIRE 704 1168 704 1120
WIRE 864 1168 864 1136
WIRE 1312 1184 1312 1136
WIRE 1440 1184 1440 1072
WIRE 2016 1184 2016 1152
FLAG 2016 512 0
FLAG 2016 800 0
FLAG 1440 624 0
FLAG 2016 912 Vdd
FLAG 1504 400 Vpp
FLAG 2016 224 Accel
FLAG 2016 640 VBias
FLAG 624 608 0
FLAG 704 608 0
FLAG 864 608 0
FLAG 144 448 Accel
FLAG 1312 624 0
FLAG 1440 1184 0
FLAG 1712 464 V0
IOPIN 1712 464 Out
FLAG 1504 928 Vdd
FLAG 1312 1184 0
FLAG 1104 448 Iin0
FLAG 1952 1072 0
FLAG 2016 1184 Vss
FLAG 1504 1152 Vss
FLAG 1552 1152 Vpp
FLAG 704 1168 0
FLAG 864 1168 0
FLAG 1088 1008 Iin1
FLAG 1792 1040 V1
IOPIN 1792 1040 Out
FLAG 2176 912 Vpp
SYMBOL Voltage 2016 384 R0
WINDOW 3 38 61 Left 2
WINDOW 123 41 37 Left 2
WINDOW 39 0 0 Left 0
SYMATTR Value PULSE(0 {Accel} 1m 5m 5m 30m)
SYMATTR Value2 AC {Accel}
SYMATTR InstName Accel
SYMBOL Voltage 2016 672 R0
WINDOW 3 42 58 Left 2
WINDOW 123 43 35 Left 2
SYMATTR Value SINE({Vbdc} {Vbac} {Vbf})
SYMATTR Value2 AC {Vbac}
SYMATTR InstName Vb
SYMBOL Res 1552 256 R90
WINDOW 0 0 56 VBottom 2
WINDOW 3 32 56 VTop 2
SYMATTR InstName Rf
SYMATTR Value {Rf}
SYMBOL Cap 1520 144 R90
WINDOW 0 0 32 VBottom 2
WINDOW 3 32 32 VTop 2
SYMATTR InstName Cf
SYMATTR Value {Cf}
SYMBOL Voltage 2016 928 R0
SYMATTR InstName Vpp1
SYMATTR Value 2.5
SYMBOL Res 304 432 R90
WINDOW 0 0 56 VBottom 2
WINDOW 3 32 56 VTop 2
SYMATTR InstName R1
SYMATTR Value {Rmot}
SYMBOL Cap 576 432 R90
WINDOW 0 0 32 VBottom 2
WINDOW 3 32 32 VTop 2
SYMATTR InstName C1
SYMATTR Value {Cmot}
SYMBOL Ind 432 432 R90
WINDOW 0 5 56 VBottom 2
WINDOW 3 32 56 VTop 2
SYMATTR InstName L1
SYMATTR Value {Lmot}
SYMBOL Cap 688 496 R0
SYMATTR InstName C3
SYMATTR Value {CNorton}
SYMBOL bi2 864 496 R0
WINDOW 3 42 58 Left 2
SYMATTR Value I=2*ddt(V(Vbias)*{eta}*idt(I(L1)))
SYMATTR InstName B1
SYMBOL Cap 1296 512 R0
SYMATTR InstName Cpar1
SYMATTR Value 25e-12
SYMBOL bv 2016 256 R0
SYMATTR InstName B2
SYMATTR Value V=8m*WHITE({bw}*time)
SYMBOL ADA4528-1 1504 400 R0
SYMATTR InstName U2
SYMBOL Res 1552 816 R90
WINDOW 0 0 56 VBottom 2
WINDOW 3 32 56 VTop 2
SYMATTR InstName Rf1
SYMATTR Value {Rf}
SYMBOL Cap 1520 704 R90
WINDOW 0 0 32 VBottom 2
WINDOW 3 32 32 VTop 2
SYMATTR InstName Cf1
SYMATTR Value {Cf}
SYMBOL Cap 1296 1072 R0
SYMATTR InstName Cpar2
SYMATTR Value 25e-12
SYMBOL LTC6268 1504 1040 R0
SYMATTR InstName U3
SYMBOL Voltage 2016 1056 R0
SYMATTR InstName Vpp2
SYMATTR Value 2.5
SYMBOL Cap 688 1056 R0
SYMATTR InstName C2
SYMATTR Value {CNorton}
SYMBOL bi2 864 1056 R0
WINDOW 3 42 58 Left 2
SYMATTR Value I=2*ddt(V(Vbias)*{eta}*idt(I(L1)))
SYMATTR InstName B3
SYMBOL Voltage 2176 928 R0
SYMATTR InstName Vpp
SYMATTR Value 5
SYMBOL Voltage 1360 288 R0
SYMATTR InstName ISENSE0
SYMATTR Value 0
SYMBOL Voltage 1360 848 R0
SYMATTR InstName ISENSE1
SYMATTR Value 0
TEXT 80 -32 Left 4 ;Capacitive Accelerometer
TEXT 80 24 Left 2 !.param Accel=55 Vbdc=2.5 Vbac=5 Vbf=100k\n.param w0=2*pi*2.5k Q=10 eta=573n bw = 270\n.param CNorton=2*1.2p Lmot=1 Rmot=w0/Q Cmot=1/w0**2\n.param Cf=1p Rf=5e6\n;.ac dec 100 1 50k\n.tran 0 10m \n;.noise V(v1) Vb dec 1k 1 1e6
TEXT 88 712 Left 2 !.meas AC I_out1 FIND pow(10,mag(I(B1))/20) AT 1Hz\n.meas AC I_out270 FIND pow(10,mag(I(B1))/20) AT 270Hz\n.meas AC It_out1 FIND pow(10,mag(I(L1))/20) AT 1Hz\n.meas AC It_out270 FIND pow(10,mag(I(L1))/20) AT 270Hz\n.meas AC Vo_dc FIND V(vo) AT 1Hz\n.meas AC Gdc1 FIND V(vo)/V(Io) AT 1Hz\n.meas AC Gdc2 FIND V(vo)/V(Io) AT 270Hz\n.meas AC Gdc3 FIND V(vo)/V(Io) AT 300Hz\n.meas AC f1p WHEN dB(V(vo)) - dB(Vo_dc)=0.087\n.meas NOISE N1 FIND V(onoise) AT 1e6Hz
TEXT 88 680 Left 2 ;AC Measurement Directives
TEXT 96 944 Left 3 ;Step Directives
TEXT 96 984 Left 2 !;.step param Accel 1 55 20\n;.step param Rf 5e6 1e6 1e6\n;.step param Cf 1e-12 5e-12 0.5e-12\n;.step param Vbdc 0 5 1\n;.step param Vbac 1 5 2\n;.step param Vbf 10k 1e6 300k\n;.step temp 0 40 10
TEXT 808 8 Left 2 ;- Rf is proportional to gain, Cf is proportional to AC output flatness & inversly proportional to gain\n- DC Bias voltage doesn't have a substantial impact on design\n- AC bias voltage is proportional to the I_in of transducer\n- Bias frequency is proportional to I_in of transducer
